
     RDKit          2D

 51 55  0  0  0  0  0  0  0  0999 V2000
   10.2760    0.0000    0.0000 O   0  0  0  0  0  0  0  0  0  0  0  0
    8.7760    0.0000    0.0000 P   0  0  0  0  0  0  0  0  0  0  0  0
    8.7760   -1.5000    0.0000 O   0  0  0  0  0  0  0  0  0  0  0  0
    8.7760    1.5000    0.0000 O   0  0  0  0  0  0  0  0  0  0  0  0
    7.2760    0.0000    0.0000 C   0  0  0  0  0  0  0  0  0  0  0  0
    5.7760    0.0000    0.0000 C   0  0  0  0  0  0  0  0  0  0  0  0
    4.2760    0.0000    0.0000 C   0  0  0  0  0  0  0  0  0  0  0  0
    2.7760    0.0000    0.0000 C   0  0  0  0  0  0  0  0  0  0  0  0
    1.2760    0.0000    0.0000 N   0  0  0  0  0  0  0  0  0  0  0  0
    0.3943    1.2135    0.0000 C   0  0  0  0  0  0  0  0  0  0  0  0
    0.7062    2.6807    0.0000 C   0  0  0  0  0  0  0  0  0  0  0  0
   -0.4086    3.6844    0.0000 C   0  0  0  0  0  0  0  0  0  0  0  0
   -1.8351    3.2209    0.0000 C   0  0  0  0  0  0  0  0  0  0  0  0
   -2.9499    4.2246    0.0000 C   0  0  0  0  0  0  0  0  0  0  0  0
   -4.3764    3.7611    0.0000 C   0  0  0  0  0  0  0  0  0  0  0  0
   -4.6883    2.2939    0.0000 C   0  0  0  0  0  0  0  0  0  0  0  0
   -3.5736    1.2902    0.0000 C   0  0  0  0  0  0  0  0  0  0  0  0
   -2.1470    1.7537    0.0000 C   0  0  0  0  0  0  0  0  0  0  0  0
   -1.0323    0.7500    0.0000 C   0  0  0  0  0  0  0  0  0  0  0  0
   -1.0323   -0.7500    0.0000 C   0  0  0  0  0  0  0  0  0  0  0  0
   -2.1470   -1.7537    0.0000 C   0  0  0  0  0  0  0  0  0  0  0  0
   -3.5736   -1.2902    0.0000 C   0  0  0  0  0  0  0  0  0  0  0  0
   -4.6883   -2.2939    0.0000 C   0  0  0  0  0  0  0  0  0  0  0  0
   -4.3764   -3.7611    0.0000 C   0  0  0  0  0  0  0  0  0  0  0  0
   -2.9499   -4.2246    0.0000 C   0  0  0  0  0  0  0  0  0  0  0  0
   -1.8351   -3.2209    0.0000 C   0  0  0  0  0  0  0  0  0  0  0  0
   -0.4086   -3.6844    0.0000 C   0  0  0  0  0  0  0  0  0  0  0  0
   -0.0967   -5.1517    0.0000 Br  0  0  0  0  0  0  0  0  0  0  0  0
    0.7062   -2.6807    0.0000 C   0  0  0  0  0  0  0  0  0  0  0  0
    0.3943   -1.2135    0.0000 C   0  0  0  0  0  0  0  0  0  0  0  0
   10.0750   -2.2500    0.0000 H   0  0  0  0  0  0  0  0  0  0  0  0
   10.0750    2.2500    0.0000 H   0  0  0  0  0  0  0  0  0  0  0  0
    7.2760    1.5000    0.0000 H   0  0  0  0  0  0  0  0  0  0  0  0
    7.2760   -1.5000    0.0000 H   0  0  0  0  0  0  0  0  0  0  0  0
    5.7760    1.5000    0.0000 H   0  0  0  0  0  0  0  0  0  0  0  0
    5.7760   -1.5000    0.0000 H   0  0  0  0  0  0  0  0  0  0  0  0
    4.2760   -1.5000    0.0000 H   0  0  0  0  0  0  0  0  0  0  0  0
    4.2760    1.5000    0.0000 H   0  0  0  0  0  0  0  0  0  0  0  0
    2.7760    1.5000    0.0000 H   0  0  0  0  0  0  0  0  0  0  0  0
    2.7760   -1.5000    0.0000 H   0  0  0  0  0  0  0  0  0  0  0  0
    2.1328    3.1443    0.0000 H   0  0  0  0  0  0  0  0  0  0  0  0
   -0.0967    5.1517    0.0000 H   0  0  0  0  0  0  0  0  0  0  0  0
   -2.6380    5.6918    0.0000 H   0  0  0  0  0  0  0  0  0  0  0  0
   -5.4912    4.7648    0.0000 H   0  0  0  0  0  0  0  0  0  0  0  0
   -6.1149    1.8303    0.0000 H   0  0  0  0  0  0  0  0  0  0  0  0
   -3.8331    0.5364    0.0000 H   0  0  0  0  0  0  0  0  0  0  0  0
   -3.8331   -0.5364    0.0000 H   0  0  0  0  0  0  0  0  0  0  0  0
   -6.1149   -1.8303    0.0000 H   0  0  0  0  0  0  0  0  0  0  0  0
   -5.4912   -4.7648    0.0000 H   0  0  0  0  0  0  0  0  0  0  0  0
   -2.6380   -5.6918    0.0000 H   0  0  0  0  0  0  0  0  0  0  0  0
    2.1328   -3.1443    0.0000 H   0  0  0  0  0  0  0  0  0  0  0  0
  1  2  2  0
  2  3  1  0
  2  4  1  0
  2  5  1  0
  5  6  1  0
  6  7  1  0
  7  8  1  0
  8  9  1  0
  9 10  1  0
 10 11  2  0
 11 12  1  0
 12 13  2  0
 13 14  1  0
 14 15  2  0
 15 16  1  0
 16 17  2  0
 17 18  1  0
 18 19  2  0
 19 20  1  0
 20 21  2  0
 21 22  1  0
 22 23  2  0
 23 24  1  0
 24 25  2  0
 25 26  1  0
 26 27  2  0
 27 28  1  0
 27 29  1  0
 29 30  2  0
 30  9  1  0
 19 10  1  0
 30 20  1  0
 18 13  1  0
 26 21  1  0
  3 31  1  0
  4 32  1  0
  5 33  1  0
  5 34  1  0
  6 35  1  0
  6 36  1  0
  7 37  1  0
  7 38  1  0
  8 39  1  0
  8 40  1  0
 11 41  1  0
 12 42  1  0
 14 43  1  0
 15 44  1  0
 16 45  1  0
 17 46  1  0
 22 47  1  0
 23 48  1  0
 24 49  1  0
 25 50  1  0
 29 51  1  0
M  END
>  <source_kind>  (1) 
image_or_document

>  <source_name>  (1) 
1Br4PADCB

>  <canonical_smiles>  (1) 
O=P(O)(O)CCCCn1c2ccc3ccccc3c2c2c3ccccc3c(Br)cc21

>  <formal_charge>  (1) 
0

>  <multiplicity>  (1) 
1

>  <rdkit_version>  (1) 
2025.09.4

$$$$
