
     RDKit          3D

 80 86  0  0  0  0  0  0  0  0999 V2000
   -0.0504   -2.2990    1.7228 C   0  0  0  0  0  0  0  0  0  0  0  0
    0.0261   -1.5651    0.3608 C   0  0  0  0  0  0  0  0  0  0  0  0
    0.2908   -2.5902   -0.7755 C   0  0  0  0  0  0  0  0  0  0  0  0
    1.2104   -0.5844    0.4088 C   0  0  0  0  0  0  0  0  0  0  0  0
    2.5285   -1.0850    0.5853 C   0  0  0  0  0  0  0  0  0  0  0  0
    3.6567   -0.2563    0.6186 C   0  0  0  0  0  0  0  0  0  0  0  0
    5.0071   -0.8096    0.8001 C   0  0  0  0  0  0  0  0  0  0  0  0
    5.3137   -1.6147    1.9060 C   0  0  0  0  0  0  0  0  0  0  0  0
    6.5974   -2.1403    2.0810 C   0  0  0  0  0  0  0  0  0  0  0  0
    7.6124   -1.8756    1.1510 C   0  0  0  0  0  0  0  0  0  0  0  0
    8.9071   -2.3959    1.3109 C   0  0  0  0  0  0  0  0  0  0  0  0
    9.9055   -2.1238    0.3743 C   0  0  0  0  0  0  0  0  0  0  0  0
    9.6223   -1.3292   -0.7325 C   0  0  0  0  0  0  0  0  0  0  0  0
    8.3403   -0.8046   -0.9047 C   0  0  0  0  0  0  0  0  0  0  0  0
    7.3245   -1.0680    0.0290 C   0  0  0  0  0  0  0  0  0  0  0  0
    6.0277   -0.5467   -0.1297 C   0  0  0  0  0  0  0  0  0  0  0  0
    3.4476    1.1110    0.4672 C   0  0  0  0  0  0  0  0  0  0  0  0
    2.1547    1.6241    0.3076 C   0  0  0  0  0  0  0  0  0  0  0  0
    1.0088    0.8028    0.2920 C   0  0  0  0  0  0  0  0  0  0  0  0
   -0.3018    1.3157    0.1511 N   0  0  0  0  0  0  0  0  0  0  0  0
   -0.4996    2.7724    0.3074 C   0  0  0  0  0  0  0  0  0  0  0  0
   -0.4217    3.4896   -1.0482 C   0  0  0  0  0  0  0  0  0  0  0  0
   -0.7288    4.9856   -0.9587 C   0  0  0  0  0  0  0  0  0  0  0  0
    0.3200    5.7821   -0.1889 C   0  0  0  0  0  0  0  0  0  0  0  0
    0.0238    7.5374   -0.2111 P   0  0  0  0  0  0  0  0  0  0  0  0
   -1.2841    8.0373    0.2982 O   0  0  0  0  0  0  0  0  0  0  0  0
    1.2642    8.1922    0.5603 O   0  0  0  0  0  0  0  0  0  0  0  0
    0.3123    8.0129   -1.7119 O   0  0  0  0  0  0  0  0  0  0  0  0
   -1.4477    0.5015   -0.0056 C   0  0  0  0  0  0  0  0  0  0  0  0
   -2.7272    1.0256   -0.2816 C   0  0  0  0  0  0  0  0  0  0  0  0
   -3.8603    0.2147   -0.4182 C   0  0  0  0  0  0  0  0  0  0  0  0
   -3.7659   -1.1677   -0.2903 C   0  0  0  0  0  0  0  0  0  0  0  0
   -4.9481   -2.0321   -0.4259 C   0  0  0  0  0  0  0  0  0  0  0  0
   -4.9700   -3.0847   -1.3516 C   0  0  0  0  0  0  0  0  0  0  0  0
   -6.0938   -3.9062   -1.4824 C   0  0  0  0  0  0  0  0  0  0  0  0
   -7.2295   -3.6978   -0.6876 C   0  0  0  0  0  0  0  0  0  0  0  0
   -8.3666   -4.5136   -0.8055 C   0  0  0  0  0  0  0  0  0  0  0  0
   -9.4885   -4.2929   -0.0052 C   0  0  0  0  0  0  0  0  0  0  0  0
   -9.4876   -3.2552    0.9221 C   0  0  0  0  0  0  0  0  0  0  0  0
   -8.3649   -2.4357    1.0504 C   0  0  0  0  0  0  0  0  0  0  0  0
   -7.2282   -2.6437    0.2520 C   0  0  0  0  0  0  0  0  0  0  0  0
   -6.0891   -1.8266    0.3686 C   0  0  0  0  0  0  0  0  0  0  0  0
   -2.4973   -1.7024   -0.0345 C   0  0  0  0  0  0  0  0  0  0  0  0
   -1.3340   -0.8968    0.0961 C   0  0  0  0  0  0  0  0  0  0  0  0
    0.8764   -2.8332    1.9597 H   0  0  0  0  0  0  0  0  0  0  0  0
   -0.8510   -3.0465    1.7478 H   0  0  0  0  0  0  0  0  0  0  0  0
   -0.2380   -1.5920    2.5407 H   0  0  0  0  0  0  0  0  0  0  0  0
    0.3498   -2.0887   -1.7498 H   0  0  0  0  0  0  0  0  0  0  0  0
    1.2265   -3.1417   -0.6353 H   0  0  0  0  0  0  0  0  0  0  0  0
   -0.4936   -3.3510   -0.8471 H   0  0  0  0  0  0  0  0  0  0  0  0
    2.6846   -2.1576    0.6894 H   0  0  0  0  0  0  0  0  0  0  0  0
    4.5516   -1.8304    2.6525 H   0  0  0  0  0  0  0  0  0  0  0  0
    6.7975   -2.7575    2.9539 H   0  0  0  0  0  0  0  0  0  0  0  0
    9.1469   -3.0194    2.1691 H   0  0  0  0  0  0  0  0  0  0  0  0
   10.9031   -2.5331    0.5098 H   0  0  0  0  0  0  0  0  0  0  0  0
   10.3982   -1.1169   -1.4633 H   0  0  0  0  0  0  0  0  0  0  0  0
    8.1381   -0.1863   -1.7765 H   0  0  0  0  0  0  0  0  0  0  0  0
    5.8036    0.0667   -1.0011 H   0  0  0  0  0  0  0  0  0  0  0  0
    4.2888    1.8007    0.4839 H   0  0  0  0  0  0  0  0  0  0  0  0
    2.0845    2.6996    0.1845 H   0  0  0  0  0  0  0  0  0  0  0  0
    0.2265    3.1913    1.0135 H   0  0  0  0  0  0  0  0  0  0  0  0
   -1.4537    2.9951    0.8012 H   0  0  0  0  0  0  0  0  0  0  0  0
    0.5657    3.3468   -1.5022 H   0  0  0  0  0  0  0  0  0  0  0  0
   -1.1368    3.0375   -1.7459 H   0  0  0  0  0  0  0  0  0  0  0  0
   -0.7964    5.3883   -1.9766 H   0  0  0  0  0  0  0  0  0  0  0  0
   -1.7141    5.1406   -0.5035 H   0  0  0  0  0  0  0  0  0  0  0  0
    1.3147    5.5851   -0.6042 H   0  0  0  0  0  0  0  0  0  0  0  0
    0.3388    5.4616    0.8576 H   0  0  0  0  0  0  0  0  0  0  0  0
    1.1315    9.1357    0.7664 H   0  0  0  0  0  0  0  0  0  0  0  0
    0.0195    8.9260   -1.8873 H   0  0  0  0  0  0  0  0  0  0  0  0
   -2.8872    2.0900   -0.4191 H   0  0  0  0  0  0  0  0  0  0  0  0
   -4.8175    0.6818   -0.6404 H   0  0  0  0  0  0  0  0  0  0  0  0
   -4.1091   -3.2666   -1.9922 H   0  0  0  0  0  0  0  0  0  0  0  0
   -6.0739   -4.7101   -2.2147 H   0  0  0  0  0  0  0  0  0  0  0  0
   -8.3855   -5.3297   -1.5242 H   0  0  0  0  0  0  0  0  0  0  0  0
  -10.3618   -4.9319   -0.1063 H   0  0  0  0  0  0  0  0  0  0  0  0
  -10.3600   -3.0822    1.5467 H   0  0  0  0  0  0  0  0  0  0  0  0
   -8.3831   -1.6301    1.7810 H   0  0  0  0  0  0  0  0  0  0  0  0
   -6.0850   -1.0208    1.1011 H   0  0  0  0  0  0  0  0  0  0  0  0
   -2.4160   -2.7823    0.0786 H   0  0  0  0  0  0  0  0  0  0  0  0
  1  2  1  0
  2  3  1  0
  2  4  1  0
  4  5  2  0
  5  6  1  0
  6  7  1  0
  7  8  2  0
  8  9  1  0
  9 10  2  0
 10 11  1  0
 11 12  2  0
 12 13  1  0
 13 14  2  0
 14 15  1  0
 15 16  2  0
  6 17  2  0
 17 18  1  0
 18 19  2  0
 19 20  1  0
 20 21  1  0
 21 22  1  0
 22 23  1  0
 23 24  1  0
 24 25  1  0
 25 26  2  0
 25 27  1  0
 25 28  1  0
 20 29  1  0
 29 30  2  0
 30 31  1  0
 31 32  2  0
 32 33  1  0
 33 34  2  0
 34 35  1  0
 35 36  2  0
 36 37  1  0
 37 38  2  0
 38 39  1  0
 39 40  2  0
 40 41  1  0
 41 42  2  0
 32 43  1  0
 43 44  2  0
 44  2  1  0
 19  4  1  0
 44 29  1  0
 16  7  1  0
 42 33  1  0
 15 10  1  0
 41 36  1  0
  1 45  1  0
  1 46  1  0
  1 47  1  0
  3 48  1  0
  3 49  1  0
  3 50  1  0
  5 51  1  0
  8 52  1  0
  9 53  1  0
 11 54  1  0
 12 55  1  0
 13 56  1  0
 14 57  1  0
 16 58  1  0
 17 59  1  0
 18 60  1  0
 21 61  1  0
 21 62  1  0
 22 63  1  0
 22 64  1  0
 23 65  1  0
 23 66  1  0
 24 67  1  0
 24 68  1  0
 27 69  1  0
 28 70  1  0
 30 71  1  0
 31 72  1  0
 34 73  1  0
 35 74  1  0
 37 75  1  0
 38 76  1  0
 39 77  1  0
 40 78  1  0
 42 79  1  0
 43 80  1  0
M  END
>  <source_kind>  (1) 
smiles

>  <source_name>  (1) 
2Nap-Ac

>  <canonical_smiles>  (1) 
CC1(C)c2cc(-c3ccc4ccccc4c3)ccc2N(CCCCP(=O)(O)O)c2ccc(-c3ccc4ccccc4c3)cc21

>  <formal_charge>  (1) 
0

>  <multiplicity>  (1) 
1

>  <rdkit_version>  (1) 
2025.09.4

$$$$
