
     RDKit          3D

 96104  0  0  0  0  0  0  0  0999 V2000
    1.1205   -0.7665   -2.2391 C   0  0  0  0  0  0  0  0  0  0  0  0
    0.8246   -1.0496   -0.7484 C   0  0  0  0  0  0  0  0  0  0  0  0
    1.4441   -2.4183   -0.3488 C   0  0  0  0  0  0  0  0  0  0  0  0
    1.4946    0.0381    0.1053 C   0  0  0  0  0  0  0  0  0  0  0  0
    2.9022    0.1737    0.1391 C   0  0  0  0  0  0  0  0  0  0  0  0
    3.5462    1.1557    0.9085 C   0  0  0  0  0  0  0  0  0  0  0  0
    5.0078    1.2958    0.8816 C   0  0  0  0  0  0  0  0  0  0  0  0
    5.6745    1.5848   -0.3174 C   0  0  0  0  0  0  0  0  0  0  0  0
    7.0649    1.7227   -0.3502 C   0  0  0  0  0  0  0  0  0  0  0  0
    7.8266    1.5750    0.8176 C   0  0  0  0  0  0  0  0  0  0  0  0
    9.2243    1.7096    0.8023 C   0  0  0  0  0  0  0  0  0  0  0  0
    9.9681    1.5589    1.9737 C   0  0  0  0  0  0  0  0  0  0  0  0
    9.3245    1.2720    3.1738 C   0  0  0  0  0  0  0  0  0  0  0  0
    7.9357    1.1356    3.2051 C   0  0  0  0  0  0  0  0  0  0  0  0
    7.1723    1.2848    2.0356 C   0  0  0  0  0  0  0  0  0  0  0  0
    5.7724    1.1505    2.0507 C   0  0  0  0  0  0  0  0  0  0  0  0
    2.7545    2.0017    1.6857 C   0  0  0  0  0  0  0  0  0  0  0  0
    1.3632    1.9022    1.6438 C   0  0  0  0  0  0  0  0  0  0  0  0
    0.7190    0.9593    0.8229 C   0  0  0  0  0  0  0  0  0  0  0  0
   -0.6908    0.9452    0.7161 N   0  0  0  0  0  0  0  0  0  0  0  0
   -1.2516    2.2599    0.2792 C   0  0  0  0  0  0  0  0  0  0  0  0
   -1.0897    2.5547   -1.2254 C   0  0  0  0  0  0  0  0  0  0  0  0
    0.2819    3.1151   -1.6073 C   0  0  0  0  0  0  0  0  0  0  0  0
    0.3682    3.4563   -3.0911 C   0  0  0  0  0  0  0  0  0  0  0  0
    2.0055    3.9628   -3.5914 P   0  0  0  0  0  0  0  0  0  0  0  0
    3.1182    3.0009   -3.3510 O   0  0  0  0  0  0  0  0  0  0  0  0
    1.8554    4.4186   -5.1204 O   0  0  0  0  0  0  0  0  0  0  0  0
    2.2362    5.3874   -2.8985 O   0  0  0  0  0  0  0  0  0  0  0  0
   -1.4025   -0.1847    0.2200 C   0  0  0  0  0  0  0  0  0  0  0  0
   -2.7837   -0.3993    0.5114 C   0  0  0  0  0  0  0  0  0  0  0  0
   -3.5435    0.3924    1.5082 C   0  0  0  0  0  0  0  0  0  0  0  0
   -4.7738    0.9854    1.1834 C   0  0  0  0  0  0  0  0  0  0  0  0
   -5.4885    1.7283    2.1282 C   0  0  0  0  0  0  0  0  0  0  0  0
   -4.9939    1.8977    3.4289 C   0  0  0  0  0  0  0  0  0  0  0  0
   -5.6963    2.6431    4.3900 C   0  0  0  0  0  0  0  0  0  0  0  0
   -5.1881    2.8016    5.6803 C   0  0  0  0  0  0  0  0  0  0  0  0
   -3.9731    2.2173    6.0257 C   0  0  0  0  0  0  0  0  0  0  0  0
   -3.2640    1.4732    5.0816 C   0  0  0  0  0  0  0  0  0  0  0  0
   -3.7616    1.3045    3.7794 C   0  0  0  0  0  0  0  0  0  0  0  0
   -3.0586    0.5582    2.8178 C   0  0  0  0  0  0  0  0  0  0  0  0
   -3.4519   -1.4800   -0.1039 C   0  0  0  0  0  0  0  0  0  0  0  0
   -2.8023   -2.3679   -0.9647 C   0  0  0  0  0  0  0  0  0  0  0  0
   -3.5282   -3.4772   -1.6029 C   0  0  0  0  0  0  0  0  0  0  0  0
   -4.6694   -3.2381   -2.3812 C   0  0  0  0  0  0  0  0  0  0  0  0
   -5.3591   -4.2903   -2.9913 C   0  0  0  0  0  0  0  0  0  0  0  0
   -4.9262   -5.6147   -2.8378 C   0  0  0  0  0  0  0  0  0  0  0  0
   -5.6069   -6.6835   -3.4432 C   0  0  0  0  0  0  0  0  0  0  0  0
   -5.1632   -7.9965   -3.2782 C   0  0  0  0  0  0  0  0  0  0  0  0
   -4.0348   -8.2570   -2.5065 C   0  0  0  0  0  0  0  0  0  0  0  0
   -3.3475   -7.2050   -1.8987 C   0  0  0  0  0  0  0  0  0  0  0  0
   -3.7803   -5.8780   -2.0558 C   0  0  0  0  0  0  0  0  0  0  0  0
   -3.0987   -4.8069   -1.4505 C   0  0  0  0  0  0  0  0  0  0  0  0
   -1.4305   -2.1871   -1.1665 C   0  0  0  0  0  0  0  0  0  0  0  0
   -0.7047   -1.1382   -0.5564 C   0  0  0  0  0  0  0  0  0  0  0  0
    2.1959   -0.7114   -2.4425 H   0  0  0  0  0  0  0  0  0  0  0  0
    0.7165   -1.5471   -2.8936 H   0  0  0  0  0  0  0  0  0  0  0  0
    0.6792    0.1841   -2.5591 H   0  0  0  0  0  0  0  0  0  0  0  0
    1.2459   -2.6459    0.7062 H   0  0  0  0  0  0  0  0  0  0  0  0
    1.0493   -3.2496   -0.9422 H   0  0  0  0  0  0  0  0  0  0  0  0
    2.5296   -2.4461   -0.4912 H   0  0  0  0  0  0  0  0  0  0  0  0
    3.5230   -0.4923   -0.4582 H   0  0  0  0  0  0  0  0  0  0  0  0
    5.1086    1.7181   -1.2396 H   0  0  0  0  0  0  0  0  0  0  0  0
    7.5454    1.9497   -1.2991 H   0  0  0  0  0  0  0  0  0  0  0  0
    9.7442    1.9329   -0.1266 H   0  0  0  0  0  0  0  0  0  0  0  0
   11.0494    1.6651    1.9473 H   0  0  0  0  0  0  0  0  0  0  0  0
    9.9022    1.1535    4.0866 H   0  0  0  0  0  0  0  0  0  0  0  0
    7.4506    0.9105    4.1523 H   0  0  0  0  0  0  0  0  0  0  0  0
    5.2668    0.9184    2.9866 H   0  0  0  0  0  0  0  0  0  0  0  0
    3.2132    2.7662    2.3084 H   0  0  0  0  0  0  0  0  0  0  0  0
    0.7779    2.5773    2.2626 H   0  0  0  0  0  0  0  0  0  0  0  0
   -0.8342    3.0890    0.8631 H   0  0  0  0  0  0  0  0  0  0  0  0
   -2.3198    2.3128    0.4979 H   0  0  0  0  0  0  0  0  0  0  0  0
   -1.3136    1.6663   -1.8260 H   0  0  0  0  0  0  0  0  0  0  0  0
   -1.8430    3.3061   -1.4967 H   0  0  0  0  0  0  0  0  0  0  0  0
    1.0730    2.3973   -1.3863 H   0  0  0  0  0  0  0  0  0  0  0  0
    0.4992    4.0128   -1.0169 H   0  0  0  0  0  0  0  0  0  0  0  0
    0.0879    2.5813   -3.6882 H   0  0  0  0  0  0  0  0  0  0  0  0
   -0.3463    4.2519   -3.3298 H   0  0  0  0  0  0  0  0  0  0  0  0
    0.9601    4.6889   -5.3931 H   0  0  0  0  0  0  0  0  0  0  0  0
    3.1576    5.6865   -3.0263 H   0  0  0  0  0  0  0  0  0  0  0  0
   -5.1820    0.8827    0.1801 H   0  0  0  0  0  0  0  0  0  0  0  0
   -6.4364    2.1753    1.8377 H   0  0  0  0  0  0  0  0  0  0  0  0
   -6.6478    3.1062    4.1392 H   0  0  0  0  0  0  0  0  0  0  0  0
   -5.7419    3.3801    6.4150 H   0  0  0  0  0  0  0  0  0  0  0  0
   -3.5759    2.3385    7.0301 H   0  0  0  0  0  0  0  0  0  0  0  0
   -2.3161    1.0229    5.3686 H   0  0  0  0  0  0  0  0  0  0  0  0
   -2.1083    0.0978    3.0878 H   0  0  0  0  0  0  0  0  0  0  0  0
   -4.5017   -1.6564    0.1308 H   0  0  0  0  0  0  0  0  0  0  0  0
   -5.0269   -2.2210   -2.5288 H   0  0  0  0  0  0  0  0  0  0  0  0
   -6.2384   -4.0648   -3.5903 H   0  0  0  0  0  0  0  0  0  0  0  0
   -6.4913   -6.4998   -4.0490 H   0  0  0  0  0  0  0  0  0  0  0  0
   -5.6995   -8.8146   -3.7517 H   0  0  0  0  0  0  0  0  0  0  0  0
   -3.6883   -9.2788   -2.3759 H   0  0  0  0  0  0  0  0  0  0  0  0
   -2.4683   -7.4289   -1.2986 H   0  0  0  0  0  0  0  0  0  0  0  0
   -2.2224   -5.0129   -0.8375 H   0  0  0  0  0  0  0  0  0  0  0  0
   -0.9149   -2.8869   -1.8223 H   0  0  0  0  0  0  0  0  0  0  0  0
  1  2  1  0
  2  3  1  0
  2  4  1  0
  4  5  2  0
  5  6  1  0
  6  7  1  0
  7  8  2  0
  8  9  1  0
  9 10  2  0
 10 11  1  0
 11 12  2  0
 12 13  1  0
 13 14  2  0
 14 15  1  0
 15 16  2  0
  6 17  2  0
 17 18  1  0
 18 19  2  0
 19 20  1  0
 20 21  1  0
 21 22  1  0
 22 23  1  0
 23 24  1  0
 24 25  1  0
 25 26  2  0
 25 27  1  0
 25 28  1  0
 20 29  1  0
 29 30  2  0
 30 31  1  0
 31 32  2  0
 32 33  1  0
 33 34  2  0
 34 35  1  0
 35 36  2  0
 36 37  1  0
 37 38  2  0
 38 39  1  0
 39 40  2  0
 30 41  1  0
 41 42  2  0
 42 43  1  0
 43 44  2  0
 44 45  1  0
 45 46  2  0
 46 47  1  0
 47 48  2  0
 48 49  1  0
 49 50  2  0
 50 51  1  0
 51 52  2  0
 42 53  1  0
 53 54  2  0
 54  2  1  0
 19  4  1  0
 54 29  1  0
 16  7  1  0
 40 31  1  0
 52 43  1  0
 15 10  1  0
 39 34  1  0
 51 46  1  0
  1 55  1  0
  1 56  1  0
  1 57  1  0
  3 58  1  0
  3 59  1  0
  3 60  1  0
  5 61  1  0
  8 62  1  0
  9 63  1  0
 11 64  1  0
 12 65  1  0
 13 66  1  0
 14 67  1  0
 16 68  1  0
 17 69  1  0
 18 70  1  0
 21 71  1  0
 21 72  1  0
 22 73  1  0
 22 74  1  0
 23 75  1  0
 23 76  1  0
 24 77  1  0
 24 78  1  0
 27 79  1  0
 28 80  1  0
 32 81  1  0
 33 82  1  0
 35 83  1  0
 36 84  1  0
 37 85  1  0
 38 86  1  0
 40 87  1  0
 41 88  1  0
 44 89  1  0
 45 90  1  0
 47 91  1  0
 48 92  1  0
 49 93  1  0
 50 94  1  0
 52 95  1  0
 53 96  1  0
M  END
>  <source_kind>  (1) 
smiles

>  <source_name>  (1) 
3Nap-Ac

>  <canonical_smiles>  (1) 
CC1(C)c2cc(-c3ccc4ccccc4c3)ccc2N(CCCCP(=O)(O)O)c2c(-c3ccc4ccccc4c3)cc(-c3ccc4ccccc4c3)cc21

>  <formal_charge>  (1) 
0

>  <multiplicity>  (1) 
1

>  <rdkit_version>  (1) 
2025.09.4

$$$$
