
     RDKit          3D

112122  0  0  0  0  0  0  0  0999 V2000
    0.5492   -3.6396   -0.4357 C   0  0  0  0  0  0  0  0  0  0  0  0
    0.4837   -2.2070   -1.0417 C   0  0  0  0  0  0  0  0  0  0  0  0
    0.6498   -2.2951   -2.5770 C   0  0  0  0  0  0  0  0  0  0  0  0
   -0.9022   -1.6259   -0.7095 C   0  0  0  0  0  0  0  0  0  0  0  0
   -2.0687   -2.3365   -1.0789 C   0  0  0  0  0  0  0  0  0  0  0  0
   -3.3535   -1.9019   -0.7415 C   0  0  0  0  0  0  0  0  0  0  0  0
   -4.5467   -2.6662   -1.1357 C   0  0  0  0  0  0  0  0  0  0  0  0
   -5.5831   -2.0597   -1.8590 C   0  0  0  0  0  0  0  0  0  0  0  0
   -6.7167   -2.7848   -2.2387 C   0  0  0  0  0  0  0  0  0  0  0  0
   -6.8460   -4.1396   -1.9027 C   0  0  0  0  0  0  0  0  0  0  0  0
   -7.9778   -4.8826   -2.2757 C   0  0  0  0  0  0  0  0  0  0  0  0
   -8.0913   -6.2303   -1.9310 C   0  0  0  0  0  0  0  0  0  0  0  0
   -7.0760   -6.8511   -1.2096 C   0  0  0  0  0  0  0  0  0  0  0  0
   -5.9448   -6.1257   -0.8320 C   0  0  0  0  0  0  0  0  0  0  0  0
   -5.8145   -4.7691   -1.1720 C   0  0  0  0  0  0  0  0  0  0  0  0
   -4.6810   -4.0243   -0.7997 C   0  0  0  0  0  0  0  0  0  0  0  0
   -3.4614   -0.7326    0.0129 C   0  0  0  0  0  0  0  0  0  0  0  0
   -2.3343    0.0299    0.3893 C   0  0  0  0  0  0  0  0  0  0  0  0
   -2.5733    1.1862    1.2853 C   0  0  0  0  0  0  0  0  0  0  0  0
   -1.9335    1.2773    2.5273 C   0  0  0  0  0  0  0  0  0  0  0  0
   -2.1617    2.3608    3.3806 C   0  0  0  0  0  0  0  0  0  0  0  0
   -3.0439    3.3866    3.0162 C   0  0  0  0  0  0  0  0  0  0  0  0
   -3.2777    4.4865    3.8573 C   0  0  0  0  0  0  0  0  0  0  0  0
   -4.1619    5.4979    3.4789 C   0  0  0  0  0  0  0  0  0  0  0  0
   -4.8225    5.4222    2.2563 C   0  0  0  0  0  0  0  0  0  0  0  0
   -4.5994    4.3354    1.4093 C   0  0  0  0  0  0  0  0  0  0  0  0
   -3.7124    3.3098    1.7757 C   0  0  0  0  0  0  0  0  0  0  0  0
   -3.4740    2.2094    0.9335 C   0  0  0  0  0  0  0  0  0  0  0  0
   -1.0371   -0.3905   -0.0405 C   0  0  0  0  0  0  0  0  0  0  0  0
    0.1319    0.3896    0.2005 N   0  0  0  0  0  0  0  0  0  0  0  0
    0.0699    1.7382   -0.4518 C   0  0  0  0  0  0  0  0  0  0  0  0
    0.4333    1.7515   -1.9494 C   0  0  0  0  0  0  0  0  0  0  0  0
   -0.6860    1.3884   -2.9329 C   0  0  0  0  0  0  0  0  0  0  0  0
   -1.9450    2.2447   -2.8596 C   0  0  0  0  0  0  0  0  0  0  0  0
   -1.7303    3.9829   -3.1340 P   0  0  0  0  0  0  0  0  0  0  0  0
   -0.8530    4.7589   -2.2135 O   0  0  0  0  0  0  0  0  0  0  0  0
   -3.2110    4.5927   -3.1916 O   0  0  0  0  0  0  0  0  0  0  0  0
   -1.2818    4.1387   -4.6631 O   0  0  0  0  0  0  0  0  0  0  0  0
    1.4472   -0.1675    0.1932 C   0  0  0  0  0  0  0  0  0  0  0  0
    2.5541    0.4726    0.8287 C   0  0  0  0  0  0  0  0  0  0  0  0
    2.4311    1.6349    1.7323 C   0  0  0  0  0  0  0  0  0  0  0  0
    1.7266    1.5294    2.9375 C   0  0  0  0  0  0  0  0  0  0  0  0
    1.6356    2.6134    3.8147 C   0  0  0  0  0  0  0  0  0  0  0  0
    2.2487    3.8360    3.5083 C   0  0  0  0  0  0  0  0  0  0  0  0
    2.1597    4.9374    4.3748 C   0  0  0  0  0  0  0  0  0  0  0  0
    2.7762    6.1479    4.0548 C   0  0  0  0  0  0  0  0  0  0  0  0
    3.4888    6.2721    2.8659 C   0  0  0  0  0  0  0  0  0  0  0  0
    3.5866    5.1859    1.9946 C   0  0  0  0  0  0  0  0  0  0  0  0
    2.9721    3.9609    2.3019 C   0  0  0  0  0  0  0  0  0  0  0  0
    3.0604    2.8575    1.4352 C   0  0  0  0  0  0  0  0  0  0  0  0
    3.8487   -0.0715    0.6778 C   0  0  0  0  0  0  0  0  0  0  0  0
    4.0868   -1.2385   -0.0481 C   0  0  0  0  0  0  0  0  0  0  0  0
    5.4468   -1.7782   -0.2005 C   0  0  0  0  0  0  0  0  0  0  0  0
    6.4792   -0.9906   -0.7289 C   0  0  0  0  0  0  0  0  0  0  0  0
    7.7718   -1.5023   -0.8781 C   0  0  0  0  0  0  0  0  0  0  0  0
    8.0689   -2.8190   -0.5002 C   0  0  0  0  0  0  0  0  0  0  0  0
    9.3617   -3.3488   -0.6429 C   0  0  0  0  0  0  0  0  0  0  0  0
    9.6407   -4.6614   -0.2593 C   0  0  0  0  0  0  0  0  0  0  0  0
    8.6319   -5.4597    0.2715 C   0  0  0  0  0  0  0  0  0  0  0  0
    7.3420   -4.9472    0.4191 C   0  0  0  0  0  0  0  0  0  0  0  0
    7.0443   -3.6288    0.0368 C   0  0  0  0  0  0  0  0  0  0  0  0
    5.7498   -3.0974    0.1786 C   0  0  0  0  0  0  0  0  0  0  0  0
    2.9798   -1.8910   -0.5972 C   0  0  0  0  0  0  0  0  0  0  0  0
    1.6586   -1.3997   -0.4623 C   0  0  0  0  0  0  0  0  0  0  0  0
    1.4961   -4.1463   -0.6501 H   0  0  0  0  0  0  0  0  0  0  0  0
    0.4345   -3.6099    0.6554 H   0  0  0  0  0  0  0  0  0  0  0  0
   -0.2315   -4.2995   -0.8287 H   0  0  0  0  0  0  0  0  0  0  0  0
    1.5821   -2.7960   -2.8616 H   0  0  0  0  0  0  0  0  0  0  0  0
   -0.1619   -2.8575   -3.0513 H   0  0  0  0  0  0  0  0  0  0  0  0
    0.6693   -1.3002   -3.0343 H   0  0  0  0  0  0  0  0  0  0  0  0
   -1.9779   -3.2580   -1.6519 H   0  0  0  0  0  0  0  0  0  0  0  0
   -5.5105   -1.0121   -2.1443 H   0  0  0  0  0  0  0  0  0  0  0  0
   -7.4984   -2.2803   -2.8020 H   0  0  0  0  0  0  0  0  0  0  0  0
   -8.7820   -4.4143   -2.8387 H   0  0  0  0  0  0  0  0  0  0  0  0
   -8.9729   -6.7936   -2.2253 H   0  0  0  0  0  0  0  0  0  0  0  0
   -7.1634   -7.9001   -0.9390 H   0  0  0  0  0  0  0  0  0  0  0  0
   -5.1626   -6.6282   -0.2674 H   0  0  0  0  0  0  0  0  0  0  0  0
   -3.8920   -4.5078   -0.2255 H   0  0  0  0  0  0  0  0  0  0  0  0
   -4.4492   -0.4199    0.3522 H   0  0  0  0  0  0  0  0  0  0  0  0
   -1.2444    0.4947    2.8375 H   0  0  0  0  0  0  0  0  0  0  0  0
   -1.6390    2.3964    4.3328 H   0  0  0  0  0  0  0  0  0  0  0  0
   -2.7683    4.5632    4.8149 H   0  0  0  0  0  0  0  0  0  0  0  0
   -4.3322    6.3444    4.1387 H   0  0  0  0  0  0  0  0  0  0  0  0
   -5.5104    6.2095    1.9598 H   0  0  0  0  0  0  0  0  0  0  0  0
   -5.1222    4.2949    0.4565 H   0  0  0  0  0  0  0  0  0  0  0  0
   -3.9910    2.1549   -0.0225 H   0  0  0  0  0  0  0  0  0  0  0  0
    0.7514    2.4251    0.0519 H   0  0  0  0  0  0  0  0  0  0  0  0
   -0.8972    2.2218   -0.3115 H   0  0  0  0  0  0  0  0  0  0  0  0
    1.2917    1.1002   -2.1475 H   0  0  0  0  0  0  0  0  0  0  0  0
    0.7829    2.7605   -2.1982 H   0  0  0  0  0  0  0  0  0  0  0  0
   -0.2748    1.4706   -3.9468 H   0  0  0  0  0  0  0  0  0  0  0  0
   -0.9724    0.3417   -2.8060 H   0  0  0  0  0  0  0  0  0  0  0  0
   -2.4406    2.0996   -1.8978 H   0  0  0  0  0  0  0  0  0  0  0  0
   -2.6496    1.8712   -3.6126 H   0  0  0  0  0  0  0  0  0  0  0  0
   -3.2162    5.5667   -3.1493 H   0  0  0  0  0  0  0  0  0  0  0  0
   -0.9726    5.0377   -4.8780 H   0  0  0  0  0  0  0  0  0  0  0  0
    1.2454    0.5898    3.2005 H   0  0  0  0  0  0  0  0  0  0  0  0
    1.0792    2.4927    4.7406 H   0  0  0  0  0  0  0  0  0  0  0  0
    1.6055    4.8594    5.3071 H   0  0  0  0  0  0  0  0  0  0  0  0
    2.6976    6.9932    4.7331 H   0  0  0  0  0  0  0  0  0  0  0  0
    3.9671    7.2146    2.6135 H   0  0  0  0  0  0  0  0  0  0  0  0
    4.1445    5.3032    1.0685 H   0  0  0  0  0  0  0  0  0  0  0  0
    3.6146    2.9523    0.5031 H   0  0  0  0  0  0  0  0  0  0  0  0
    4.6867    0.4168    1.1762 H   0  0  0  0  0  0  0  0  0  0  0  0
    6.2807    0.0329   -1.0411 H   0  0  0  0  0  0  0  0  0  0  0  0
    8.5453   -0.8612   -1.2948 H   0  0  0  0  0  0  0  0  0  0  0  0
   10.1632   -2.7395   -1.0544 H   0  0  0  0  0  0  0  0  0  0  0  0
   10.6457   -5.0588   -0.3743 H   0  0  0  0  0  0  0  0  0  0  0  0
    8.8476   -6.4816    0.5721 H   0  0  0  0  0  0  0  0  0  0  0  0
    6.5673   -5.5862    0.8371 H   0  0  0  0  0  0  0  0  0  0  0  0
    4.9638   -3.7191    0.6048 H   0  0  0  0  0  0  0  0  0  0  0  0
    3.1574   -2.8090   -1.1554 H   0  0  0  0  0  0  0  0  0  0  0  0
  1  2  1  0
  2  3  1  0
  2  4  1  0
  4  5  2  0
  5  6  1  0
  6  7  1  0
  7  8  2  0
  8  9  1  0
  9 10  2  0
 10 11  1  0
 11 12  2  0
 12 13  1  0
 13 14  2  0
 14 15  1  0
 15 16  2  0
  6 17  2  0
 17 18  1  0
 18 19  1  0
 19 20  2  0
 20 21  1  0
 21 22  2  0
 22 23  1  0
 23 24  2  0
 24 25  1  0
 25 26  2  0
 26 27  1  0
 27 28  2  0
 18 29  2  0
 29 30  1  0
 30 31  1  0
 31 32  1  0
 32 33  1  0
 33 34  1  0
 34 35  1  0
 35 36  2  0
 35 37  1  0
 35 38  1  0
 30 39  1  0
 39 40  2  0
 40 41  1  0
 41 42  2  0
 42 43  1  0
 43 44  2  0
 44 45  1  0
 45 46  2  0
 46 47  1  0
 47 48  2  0
 48 49  1  0
 49 50  2  0
 40 51  1  0
 51 52  2  0
 52 53  1  0
 53 54  2  0
 54 55  1  0
 55 56  2  0
 56 57  1  0
 57 58  2  0
 58 59  1  0
 59 60  2  0
 60 61  1  0
 61 62  2  0
 52 63  1  0
 63 64  2  0
 64  2  1  0
 29  4  1  0
 64 39  1  0
 16  7  1  0
 28 19  1  0
 50 41  1  0
 62 53  1  0
 15 10  1  0
 27 22  1  0
 49 44  1  0
 61 56  1  0
  1 65  1  0
  1 66  1  0
  1 67  1  0
  3 68  1  0
  3 69  1  0
  3 70  1  0
  5 71  1  0
  8 72  1  0
  9 73  1  0
 11 74  1  0
 12 75  1  0
 13 76  1  0
 14 77  1  0
 16 78  1  0
 17 79  1  0
 20 80  1  0
 21 81  1  0
 23 82  1  0
 24 83  1  0
 25 84  1  0
 26 85  1  0
 28 86  1  0
 31 87  1  0
 31 88  1  0
 32 89  1  0
 32 90  1  0
 33 91  1  0
 33 92  1  0
 34 93  1  0
 34 94  1  0
 37 95  1  0
 38 96  1  0
 42 97  1  0
 43 98  1  0
 45 99  1  0
 46100  1  0
 47101  1  0
 48102  1  0
 50103  1  0
 51104  1  0
 54105  1  0
 55106  1  0
 57107  1  0
 58108  1  0
 59109  1  0
 60110  1  0
 62111  1  0
 63112  1  0
M  END
>  <source_kind>  (1) 
smiles

>  <source_name>  (1) 
4Nap-Ac

>  <canonical_smiles>  (1) 
CC1(C)c2cc(-c3ccc4ccccc4c3)cc(-c3ccc4ccccc4c3)c2N(CCCCP(=O)(O)O)c2c(-c3ccc4ccccc4c3)cc(-c3ccc4ccccc4c3)cc21

>  <formal_charge>  (1) 
0

>  <multiplicity>  (1) 
1

>  <rdkit_version>  (1) 
2025.09.4

$$$$
