
     RDKit          3D

 45 49  0  0  0  0  0  0  0  0999 V2000
    4.5359    1.2843   -0.8872 O   0  0  0  0  0  0  0  0  0  0  0  0
    4.1943    0.1252   -0.0142 P   0  0  0  0  0  0  0  0  0  0  0  0
    3.1566    0.4943    1.1416 O   0  0  0  0  0  0  0  0  0  0  0  0
    5.4529   -0.3450    0.8582 O   0  0  0  0  0  0  0  0  0  0  0  0
    3.5854   -1.3454   -0.7908 C   0  0  0  0  0  0  0  0  0  0  0  0
    2.4653   -1.0903   -1.7855 C   0  0  0  0  0  0  0  0  0  0  0  0
    1.2162   -0.6728   -1.1629 N   0  0  0  0  0  0  0  0  0  0  0  0
    0.7633    0.6269   -1.0864 C   0  0  0  0  0  0  0  0  0  0  0  0
    1.3110    1.8132   -1.5985 C   0  0  0  0  0  0  0  0  0  0  0  0
    0.7088    3.0256   -1.2691 C   0  0  0  0  0  0  0  0  0  0  0  0
   -0.3597    3.0808   -0.3774 C   0  0  0  0  0  0  0  0  0  0  0  0
   -0.8774    4.3227    0.0256 C   0  0  0  0  0  0  0  0  0  0  0  0
   -1.8815    4.4019    0.9897 C   0  0  0  0  0  0  0  0  0  0  0  0
   -2.3627    3.2411    1.5812 C   0  0  0  0  0  0  0  0  0  0  0  0
   -1.8699    1.9976    1.1787 C   0  0  0  0  0  0  0  0  0  0  0  0
   -0.9021    1.8823    0.1557 C   0  0  0  0  0  0  0  0  0  0  0  0
   -0.4015    0.6116   -0.3075 C   0  0  0  0  0  0  0  0  0  0  0  0
   -0.7981   -0.7851   -0.1909 C   0  0  0  0  0  0  0  0  0  0  0  0
   -1.9778   -1.5076    0.2147 C   0  0  0  0  0  0  0  0  0  0  0  0
   -3.2244   -0.8522    0.3349 C   0  0  0  0  0  0  0  0  0  0  0  0
   -4.3667   -1.5205    0.7738 C   0  0  0  0  0  0  0  0  0  0  0  0
   -4.2970   -2.8696    1.0793 C   0  0  0  0  0  0  0  0  0  0  0  0
   -3.0968   -3.5586    0.8991 C   0  0  0  0  0  0  0  0  0  0  0  0
   -1.9239   -2.9131    0.4324 C   0  0  0  0  0  0  0  0  0  0  0  0
   -0.7239   -3.5901    0.1399 C   0  0  0  0  0  0  0  0  0  0  0  0
   -0.5160   -5.4721    0.3868 Br  0  0  0  0  0  0  0  0  0  0  0  0
    0.3763   -2.9290   -0.4132 C   0  0  0  0  0  0  0  0  0  0  0  0
    0.3094   -1.5397   -0.5890 C   0  0  0  0  0  0  0  0  0  0  0  0
    3.2342    1.4071    1.4753 H   0  0  0  0  0  0  0  0  0  0  0  0
    5.9641    0.4017    1.2210 H   0  0  0  0  0  0  0  0  0  0  0  0
    4.4201   -1.8032   -1.3340 H   0  0  0  0  0  0  0  0  0  0  0  0
    3.2786   -2.0642   -0.0238 H   0  0  0  0  0  0  0  0  0  0  0  0
    2.2499   -2.0018   -2.3553 H   0  0  0  0  0  0  0  0  0  0  0  0
    2.7612   -0.3334   -2.5175 H   0  0  0  0  0  0  0  0  0  0  0  0
    2.1961    1.8131   -2.2283 H   0  0  0  0  0  0  0  0  0  0  0  0
    1.1362    3.9403   -1.6755 H   0  0  0  0  0  0  0  0  0  0  0  0
   -0.4842    5.2457   -0.3954 H   0  0  0  0  0  0  0  0  0  0  0  0
   -2.2637    5.3710    1.2989 H   0  0  0  0  0  0  0  0  0  0  0  0
   -3.1123    3.2984    2.3660 H   0  0  0  0  0  0  0  0  0  0  0  0
   -2.2161    1.1182    1.7131 H   0  0  0  0  0  0  0  0  0  0  0  0
   -3.3340    0.1858    0.0352 H   0  0  0  0  0  0  0  0  0  0  0  0
   -5.3088   -0.9862    0.8626 H   0  0  0  0  0  0  0  0  0  0  0  0
   -5.1811   -3.3988    1.4251 H   0  0  0  0  0  0  0  0  0  0  0  0
   -3.1013   -4.6255    1.1092 H   0  0  0  0  0  0  0  0  0  0  0  0
    1.2651   -3.4846   -0.6956 H   0  0  0  0  0  0  0  0  0  0  0  0
  1  2  2  0
  2  3  1  0
  2  4  1  0
  2  5  1  0
  5  6  1  0
  6  7  1  0
  7  8  1  0
  8  9  2  0
  9 10  1  0
 10 11  2  0
 11 12  1  0
 12 13  2  0
 13 14  1  0
 14 15  2  0
 15 16  1  0
 16 17  2  0
 17 18  1  0
 18 19  2  0
 19 20  1  0
 20 21  2  0
 21 22  1  0
 22 23  2  0
 23 24  1  0
 24 25  2  0
 25 26  1  0
 25 27  1  0
 27 28  2  0
 28  7  1  0
 17  8  1  0
 28 18  1  0
 16 11  1  0
 24 19  1  0
  3 29  1  0
  4 30  1  0
  5 31  1  0
  5 32  1  0
  6 33  1  0
  6 34  1  0
  9 35  1  0
 10 36  1  0
 12 37  1  0
 13 38  1  0
 14 39  1  0
 15 40  1  0
 20 41  1  0
 21 42  1  0
 22 43  1  0
 23 44  1  0
 27 45  1  0
M  END
>  <isomer_name>  (1) 
1Br2PADCB

>  <source_smiles>  (1) 
O=P(O)(O)CCn1c2ccc3ccccc3c2c2c3ccccc3c(Br)cc21

>  <conformer_rank>  (1) 
43

>  <conformer_id>  (1) 
42

>  <optimization_status>  (1) 
converged

>  <mmff94s_energy_kcal_mol>  (1) 
-59.4200067826671

>  <mmff94s_energy_initial_kcal_mol>  (1) 
24.8067302640653

>  <optimization_return_code>  (1) 
0

>  <selection>  (1) 
lowest_MMFF94s_energy_among_successful_conformers

$$$$
