
     RDKit          3D

 51 55  0  0  0  0  0  0  0  0999 V2000
    4.6430    2.0102    0.7081 O   0  0  0  0  0  0  0  0  0  0  0  0
    4.7427    1.1851   -0.5293 P   0  0  0  0  0  0  0  0  0  0  0  0
    3.6706    1.6120   -1.6369 O   0  0  0  0  0  0  0  0  0  0  0  0
    6.1129    1.4603   -1.3120 O   0  0  0  0  0  0  0  0  0  0  0  0
    4.6244   -0.5828   -0.3878 C   0  0  0  0  0  0  0  0  0  0  0  0
    3.2649   -1.1190    0.0531 C   0  0  0  0  0  0  0  0  0  0  0  0
    2.9075   -0.7176    1.4859 C   0  0  0  0  0  0  0  0  0  0  0  0
    1.5965   -1.3367    1.9807 C   0  0  0  0  0  0  0  0  0  0  0  0
    0.4178   -0.8887    1.2504 N   0  0  0  0  0  0  0  0  0  0  0  0
   -0.1754    0.3450    1.4174 C   0  0  0  0  0  0  0  0  0  0  0  0
    0.1490    1.3910    2.2946 C   0  0  0  0  0  0  0  0  0  0  0  0
   -0.5517    2.5904    2.1904 C   0  0  0  0  0  0  0  0  0  0  0  0
   -1.4916    2.7907    1.1814 C   0  0  0  0  0  0  0  0  0  0  0  0
   -2.1049    4.0453    1.0301 C   0  0  0  0  0  0  0  0  0  0  0  0
   -2.9742    4.2952   -0.0308 C   0  0  0  0  0  0  0  0  0  0  0  0
   -3.2210    3.3012   -0.9689 C   0  0  0  0  0  0  0  0  0  0  0  0
   -2.6318    2.0432   -0.8232 C   0  0  0  0  0  0  0  0  0  0  0  0
   -1.8019    1.7390    0.2793 C   0  0  0  0  0  0  0  0  0  0  0  0
   -1.2098    0.4390    0.4785 C   0  0  0  0  0  0  0  0  0  0  0  0
   -1.3984   -0.9024   -0.0578 C   0  0  0  0  0  0  0  0  0  0  0  0
   -2.4026   -1.5866   -0.8333 C   0  0  0  0  0  0  0  0  0  0  0  0
   -3.6972   -1.0403   -0.9864 C   0  0  0  0  0  0  0  0  0  0  0  0
   -4.6675   -1.6594   -1.7733 C   0  0  0  0  0  0  0  0  0  0  0  0
   -4.3754   -2.8558   -2.4072 C   0  0  0  0  0  0  0  0  0  0  0  0
   -3.1298   -3.4549   -2.2141 C   0  0  0  0  0  0  0  0  0  0  0  0
   -2.1304   -2.8626   -1.4015 C   0  0  0  0  0  0  0  0  0  0  0  0
   -0.9015   -3.4807   -1.0994 C   0  0  0  0  0  0  0  0  0  0  0  0
   -0.4064   -5.1865   -1.8003 Br  0  0  0  0  0  0  0  0  0  0  0  0
    0.0108   -2.9056   -0.2103 C   0  0  0  0  0  0  0  0  0  0  0  0
   -0.2674   -1.6361    0.3160 C   0  0  0  0  0  0  0  0  0  0  0  0
    3.4982    2.5712   -1.6618 H   0  0  0  0  0  0  0  0  0  0  0  0
    6.3681    2.4009   -1.3098 H   0  0  0  0  0  0  0  0  0  0  0  0
    5.4022   -0.9371    0.2978 H   0  0  0  0  0  0  0  0  0  0  0  0
    4.8557   -1.0140   -1.3690 H   0  0  0  0  0  0  0  0  0  0  0  0
    2.4999   -0.7514   -0.6393 H   0  0  0  0  0  0  0  0  0  0  0  0
    3.2783   -2.2125   -0.0240 H   0  0  0  0  0  0  0  0  0  0  0  0
    3.7130   -1.0346    2.1593 H   0  0  0  0  0  0  0  0  0  0  0  0
    2.8447    0.3722    1.5586 H   0  0  0  0  0  0  0  0  0  0  0  0
    1.4355   -1.0799    3.0345 H   0  0  0  0  0  0  0  0  0  0  0  0
    1.6452   -2.4293    1.9391 H   0  0  0  0  0  0  0  0  0  0  0  0
    0.9341    1.2888    3.0377 H   0  0  0  0  0  0  0  0  0  0  0  0
   -0.3017    3.3960    2.8780 H   0  0  0  0  0  0  0  0  0  0  0  0
   -1.8908    4.8504    1.7298 H   0  0  0  0  0  0  0  0  0  0  0  0
   -3.4317    5.2748   -0.1402 H   0  0  0  0  0  0  0  0  0  0  0  0
   -3.8606    3.5039   -1.8239 H   0  0  0  0  0  0  0  0  0  0  0  0
   -2.7888    1.3160   -1.6137 H   0  0  0  0  0  0  0  0  0  0  0  0
   -3.9854   -0.1431   -0.4466 H   0  0  0  0  0  0  0  0  0  0  0  0
   -5.6515   -1.2101   -1.8768 H   0  0  0  0  0  0  0  0  0  0  0  0
   -5.1239   -3.3447   -3.0252 H   0  0  0  0  0  0  0  0  0  0  0  0
   -2.9615   -4.4152   -2.6957 H   0  0  0  0  0  0  0  0  0  0  0  0
    0.9198   -3.4343    0.0583 H   0  0  0  0  0  0  0  0  0  0  0  0
  1  2  2  0
  2  3  1  0
  2  4  1  0
  2  5  1  0
  5  6  1  0
  6  7  1  0
  7  8  1  0
  8  9  1  0
  9 10  1  0
 10 11  2  0
 11 12  1  0
 12 13  2  0
 13 14  1  0
 14 15  2  0
 15 16  1  0
 16 17  2  0
 17 18  1  0
 18 19  2  0
 19 20  1  0
 20 21  2  0
 21 22  1  0
 22 23  2  0
 23 24  1  0
 24 25  2  0
 25 26  1  0
 26 27  2  0
 27 28  1  0
 27 29  1  0
 29 30  2  0
 30  9  1  0
 19 10  1  0
 30 20  1  0
 18 13  1  0
 26 21  1  0
  3 31  1  0
  4 32  1  0
  5 33  1  0
  5 34  1  0
  6 35  1  0
  6 36  1  0
  7 37  1  0
  7 38  1  0
  8 39  1  0
  8 40  1  0
 11 41  1  0
 12 42  1  0
 14 43  1  0
 15 44  1  0
 16 45  1  0
 17 46  1  0
 22 47  1  0
 23 48  1  0
 24 49  1  0
 25 50  1  0
 29 51  1  0
M  END
>  <isomer_name>  (1) 
1Br4PADCB

>  <source_smiles>  (1) 
O=P(O)(O)CCCCn1c2ccc3ccccc3c2c2c3ccccc3c(Br)cc21

>  <conformer_rank>  (1) 
85

>  <conformer_id>  (1) 
84

>  <optimization_status>  (1) 
converged

>  <mmff94s_energy_kcal_mol>  (1) 
-36.53170220405406

>  <mmff94s_energy_initial_kcal_mol>  (1) 
54.7937800348393

>  <optimization_return_code>  (1) 
0

>  <selection>  (1) 
lowest_MMFF94s_energy_among_successful_conformers

$$$$
