
     RDKit          3D

 45 49  0  0  0  0  0  0  0  0999 V2000
    5.8949    0.7957   -0.8436 O   0  0  0  0  0  0  0  0  0  0  0  0
    5.2758   -0.2736   -0.0119 P   0  0  0  0  0  0  0  0  0  0  0  0
    5.4964   -1.7289   -0.6412 O   0  0  0  0  0  0  0  0  0  0  0  0
    5.9918   -0.4402    1.4082 O   0  0  0  0  0  0  0  0  0  0  0  0
    3.5428   -0.1603    0.3267 C   0  0  0  0  0  0  0  0  0  0  0  0
    2.7412   -0.0800   -0.9590 C   0  0  0  0  0  0  0  0  0  0  0  0
    1.3090   -0.0067   -0.7099 N   0  0  0  0  0  0  0  0  0  0  0  0
    0.4737   -1.0992   -0.6335 C   0  0  0  0  0  0  0  0  0  0  0  0
    0.7699   -2.4680   -0.6917 C   0  0  0  0  0  0  0  0  0  0  0  0
   -0.2871   -3.3824   -0.6866 C   0  0  0  0  0  0  0  0  0  0  0  0
    0.2158   -5.2241   -0.7198 Br  0  0  0  0  0  0  0  0  0  0  0  0
   -1.6310   -2.9607   -0.7212 C   0  0  0  0  0  0  0  0  0  0  0  0
   -2.7310   -3.8491   -0.8238 C   0  0  0  0  0  0  0  0  0  0  0  0
   -4.0419   -3.3893   -0.9580 C   0  0  0  0  0  0  0  0  0  0  0  0
   -4.2895   -2.0279   -1.0186 C   0  0  0  0  0  0  0  0  0  0  0  0
   -3.2318   -1.1278   -0.8969 C   0  0  0  0  0  0  0  0  0  0  0  0
   -1.9036   -1.5639   -0.6859 C   0  0  0  0  0  0  0  0  0  0  0  0
   -0.8321   -0.6157   -0.5105 C   0  0  0  0  0  0  0  0  0  0  0  0
   -0.7122    0.8064   -0.2084 C   0  0  0  0  0  0  0  0  0  0  0  0
   -1.5755    1.8475    0.2920 C   0  0  0  0  0  0  0  0  0  0  0  0
   -2.8061    1.5347    0.9141 C   0  0  0  0  0  0  0  0  0  0  0  0
   -3.6780    2.5277    1.3589 C   0  0  0  0  0  0  0  0  0  0  0  0
   -3.3293    3.8604    1.2168 C   0  0  0  0  0  0  0  0  0  0  0  0
   -2.0882    4.1966    0.6744 C   0  0  0  0  0  0  0  0  0  0  0  0
   -1.1695    3.2106    0.2344 C   0  0  0  0  0  0  0  0  0  0  0  0
    0.1311    3.5037   -0.2208 C   0  0  0  0  0  0  0  0  0  0  0  0
    0.8008    5.2875   -0.3461 Br  0  0  0  0  0  0  0  0  0  0  0  0
    1.0398    2.4935   -0.5484 C   0  0  0  0  0  0  0  0  0  0  0  0
    0.6059    1.1612   -0.5131 C   0  0  0  0  0  0  0  0  0  0  0  0
    6.3908   -1.8591   -1.0091 H   0  0  0  0  0  0  0  0  0  0  0  0
    6.9610   -0.3378    1.3712 H   0  0  0  0  0  0  0  0  0  0  0  0
    3.3557    0.7272    0.9419 H   0  0  0  0  0  0  0  0  0  0  0  0
    3.2270   -1.0247    0.9216 H   0  0  0  0  0  0  0  0  0  0  0  0
    2.9338   -0.9490   -1.5974 H   0  0  0  0  0  0  0  0  0  0  0  0
    3.0334    0.7938   -1.5507 H   0  0  0  0  0  0  0  0  0  0  0  0
    1.7979   -2.8154   -0.7379 H   0  0  0  0  0  0  0  0  0  0  0  0
   -2.5810   -4.9262   -0.8258 H   0  0  0  0  0  0  0  0  0  0  0  0
   -4.8601   -4.0989   -1.0488 H   0  0  0  0  0  0  0  0  0  0  0  0
   -5.3009   -1.6612   -1.1726 H   0  0  0  0  0  0  0  0  0  0  0  0
   -3.4545   -0.0719   -1.0206 H   0  0  0  0  0  0  0  0  0  0  0  0
   -3.0820    0.5023    1.1077 H   0  0  0  0  0  0  0  0  0  0  0  0
   -4.6206    2.2546    1.8258 H   0  0  0  0  0  0  0  0  0  0  0  0
   -4.0033    4.6420    1.5575 H   0  0  0  0  0  0  0  0  0  0  0  0
   -1.8395    5.2541    0.6241 H   0  0  0  0  0  0  0  0  0  0  0  0
    2.0600    2.7426   -0.8252 H   0  0  0  0  0  0  0  0  0  0  0  0
  1  2  2  0
  2  3  1  0
  2  4  1  0
  2  5  1  0
  5  6  1  0
  6  7  1  0
  7  8  1  0
  8  9  2  0
  9 10  1  0
 10 11  1  0
 10 12  2  0
 12 13  1  0
 13 14  2  0
 14 15  1  0
 15 16  2  0
 16 17  1  0
 17 18  2  0
 18 19  1  0
 19 20  2  0
 20 21  1  0
 21 22  2  0
 22 23  1  0
 23 24  2  0
 24 25  1  0
 25 26  2  0
 26 27  1  0
 26 28  1  0
 28 29  2  0
 29  7  1  0
 18  8  1  0
 29 19  1  0
 17 12  1  0
 25 20  1  0
  3 30  1  0
  4 31  1  0
  5 32  1  0
  5 33  1  0
  6 34  1  0
  6 35  1  0
  9 36  1  0
 13 37  1  0
 14 38  1  0
 15 39  1  0
 16 40  1  0
 21 41  1  0
 22 42  1  0
 23 43  1  0
 24 44  1  0
 28 45  1  0
M  END
>  <isomer_name>  (1) 
2Br2PADCB

>  <source_smiles>  (1) 
O=P(O)(O)CCn1c2cc(Br)c3ccccc3c2c2c3ccccc3c(Br)cc21

>  <conformer_rank>  (1) 
27

>  <conformer_id>  (1) 
26

>  <optimization_status>  (1) 
converged

>  <mmff94s_energy_kcal_mol>  (1) 
-52.17924958244244

>  <mmff94s_energy_initial_kcal_mol>  (1) 
41.18350823115913

>  <optimization_return_code>  (1) 
0

>  <selection>  (1) 
lowest_MMFF94s_energy_among_successful_conformers

$$$$
